Version 4.1
SHEET 1 1136 1108
WIRE -800 -240 -848 -240
WIRE -624 -240 -720 -240
WIRE -528 -240 -624 -240
WIRE -336 -240 -448 -240
WIRE -224 -240 -336 -240
WIRE -32 -240 -144 -240
WIRE 80 -240 -32 -240
WIRE 320 -240 160 -240
WIRE 544 -240 320 -240
WIRE 864 -240 624 -240
WIRE -624 -144 -624 -240
WIRE -624 -144 -800 -144
WIRE -336 -144 -336 -240
WIRE -336 -144 -464 -144
WIRE -32 -144 -32 -240
WIRE -32 -144 -144 -144
WIRE 320 -144 320 -240
WIRE 320 -144 192 -144
WIRE -800 48 -800 -144
WIRE -768 48 -800 48
WIRE -544 48 -576 48
WIRE -464 48 -464 -144
WIRE -432 48 -464 48
WIRE -208 48 -240 48
WIRE -144 48 -144 -144
WIRE -112 48 -144 48
WIRE 112 48 80 48
WIRE 192 48 192 -144
WIRE 224 48 192 48
WIRE 528 48 416 48
WIRE 560 48 528 48
WIRE 592 48 560 48
WIRE 688 48 592 48
WIRE 864 64 864 -240
WIRE 864 64 752 64
WIRE 1008 64 864 64
WIRE 688 80 656 80
WIRE 656 96 656 80
WIRE -768 112 -784 112
WIRE -432 112 -448 112
WIRE -112 112 -128 112
WIRE 224 112 208 112
WIRE -608 240 -608 224
WIRE -272 240 -272 224
WIRE 48 240 48 224
WIRE 384 240 384 224
WIRE 112 320 112 48
WIRE 528 320 528 48
WIRE 528 320 112 320
WIRE -208 352 -208 48
WIRE 560 352 560 48
WIRE 560 352 -208 352
WIRE -544 384 -544 48
WIRE 592 384 592 48
WIRE 592 384 -544 384
FLAG 416 -400 0
FLAG 64 -400 0
FLAG 224 -400 0
FLAG 224 -480 +VCC
IOPIN 224 -480 In
FLAG 64 -480 -VCC
IOPIN 64 -480 In
FLAG 416 -480 VO4
IOPIN 416 -480 In
FLAG -848 -240 VO4
IOPIN -848 -240 In
FLAG 720 32 +VCC
IOPIN 720 32 In
FLAG 720 96 -VCC
IOPIN 720 96 In
FLAG 1008 64 VO5
IOPIN 1008 64 Out
FLAG 656 96 0
FLAG -672 -32 +VCC
IOPIN -672 -32 In
FLAG -336 -32 +VCC
IOPIN -336 -32 In
FLAG -16 -32 +VCC
IOPIN -16 -32 In
FLAG 320 -32 +VCC
IOPIN 320 -32 In
FLAG -736 224 -VCC
IOPIN -736 224 In
FLAG -400 224 -VCC
IOPIN -400 224 In
FLAG -80 224 -VCC
IOPIN -80 224 In
FLAG 256 224 -VCC
IOPIN 256 224 In
FLAG -608 240 0
FLAG -272 240 0
FLAG 48 240 0
FLAG 384 240 0
FLAG -448 112 +VCC
IOPIN -448 112 In
FLAG -128 112 +VCC
IOPIN -128 112 In
FLAG 208 112 0
FLAG -784 112 +VCC
IOPIN -784 112 In
DATAFLAG 864 64 ""
SYMBOL voltage 416 -496 R0
WINDOW 123 24 44 Left 2
WINDOW 39 0 0 Left 0
SYMATTR Value2 AC 1
SYMATTR InstName V1
SYMATTR Value SINE(0 -3.12 7k)
SYMBOL voltage 64 -496 R0
WINDOW 123 0 0 Left 0
WINDOW 39 0 0 Left 0
SYMATTR InstName V2
SYMATTR Value -15V
SYMBOL voltage 224 -496 R0
WINDOW 123 24 44 Left 2
WINDOW 39 0 0 Left 0
SYMATTR InstName V3
SYMATTR Value 15V
SYMBOL res -704 -256 R90
WINDOW 0 0 56 VBottom 2
WINDOW 3 32 56 VTop 2
SYMATTR InstName R6
SYMATTR Value 10k
SYMBOL res -432 -256 R90
WINDOW 0 0 56 VBottom 2
WINDOW 3 32 56 VTop 2
SYMATTR InstName R7
SYMATTR Value 1.6k
SYMBOL res -128 -256 R90
WINDOW 0 0 56 VBottom 2
WINDOW 3 32 56 VTop 2
SYMATTR InstName R8
SYMATTR Value 1.8k
SYMBOL res 176 -256 R90
WINDOW 0 0 56 VBottom 2
WINDOW 3 32 56 VTop 2
SYMATTR InstName R9
SYMATTR Value 1.8k
SYMBOL res 640 -256 R90
WINDOW 0 0 56 VBottom 2
WINDOW 3 32 56 VTop 2
SYMATTR InstName R10
SYMATTR Value 17k
SYMBOL OpAmps\\ADA4627 720 0 R0
WINDOW 3 27 107 Left 2
SYMATTR InstName AO2
SYMBOL Switches\\ADG1311 -672 96 R0
SYMATTR InstName SW1
SYMBOL Switches\\ADG1311 -336 96 R0
SYMATTR InstName SW2
SYMBOL Switches\\ADG1311 -16 96 R0
SYMATTR InstName SW3
SYMBOL Switches\\ADG1311 320 96 R0
SYMATTR InstName SW4
TEXT -632 -424 Left 2 !;SW=ON daca IN=GND\n;SW=OFF daca IN=VCC
TEXT -336 -424 Left 2 !;A_Vin=-1.56V cu SW1 ON\n;A_Vin=-3.12V cu SW4 ON
TEXT -632 -568 Left 2 ;.ac dec 100 1 100MEG
TEXT -632 -536 Left 2 !.tran 0 2m
TEXT -632 -600 Left 2 ;.op
TEXT -632 -504 Left 2 !.four 7k 10 V(vo5)
